<?xml version="1.0" encoding="UTF-8"?>

<!-- generated on 2025-03-07 12:59:12 by Eclipse SUMO netedit Version 1.22.0
-->

<additional xmlns:xsi="http://www.w3.org/2001/XMLSchema-instance" xsi:noNamespaceSchemaLocation="http://sumo.dlr.de/xsd/additional_file.xsd">
    <!-- Calibrators -->
    <calibrator id="ca_0" edge="1o" pos="0.00"/>
    <!-- StoppingPlaces -->
    <chargingStation id="cs_0" lane="2si_0" startPos="190.33" endPos="200.33"/>
    <chargingStation id="cs_1" lane="2si_0" startPos="195.50" endPos="205.50"/>
    <!-- Detectors -->
    <inductionLoop id="e1_0" lane="2si_1" pos="236.32" period="300.00" file="e1_0.xml" friendlyPos="1"/>
    <laneAreaDetector id="e2_0" lane="2si_1" pos="228.35" length="10.00" period="300.00" file="e2_0.xml" friendlyPos="1"/>
    <laneAreaDetector id="e2_1" lanes="2si_2 3o_0" pos="218.43" endPos="3.87" period="300.00" file="e2_1.xml"/>
    <!-- Shapes -->
    <poly id="po_0" color="red" fill="0" layer="0.00" shape="442.911822,546.301120 439.895843,518.726453 462.623400,524.542985 442.480968,546.839688 451.744333,551.255943"/>
    <poi id="poi_0" color="red" layer="202.00" x="355.50" y="497.20"/>
</additional>
